SOL 103
CEND
TITLE = MIDAS EIGEN-13 PLATE CHECK
SUBCASE 1
  METHOD = 1
  SPC = 1
BEGIN BULK
PARAM,POST,-1
PARAM,LANCMETH,FEAST
EIGRL,1,0.,700.,6
MAT1,1,2.06580000E+008,,0.300000,7.85699572E+000
PSHELL,1,1,3.04800000E-003,1
GRID,1,,-1.50808000E-001,0.00000000E+000,5.90651000E-001
GRID,2,,-1.43413000E-001,0.00000000E+000,5.92490000E-001
GRID,3,,-1.35996000E-001,0.00000000E+000,5.94237000E-001
GRID,4,,-1.28558000E-001,0.00000000E+000,5.95890000E-001
GRID,5,,-1.21099000E-001,0.00000000E+000,5.97450000E-001
GRID,6,,-1.13622000E-001,0.00000000E+000,5.98918000E-001
GRID,7,,-1.06127000E-001,0.00000000E+000,6.00291000E-001
GRID,8,,-9.86152000E-002,0.00000000E+000,6.01571000E-001
GRID,9,,-9.10880000E-002,0.00000000E+000,6.02756000E-001
GRID,10,,-8.35467000E-002,0.00000000E+000,6.03848000E-001
GRID,11,,-7.59922000E-002,0.00000000E+000,6.04845000E-001
GRID,12,,-6.84259000E-002,0.00000000E+000,6.05748000E-001
GRID,13,,-6.08489000E-002,0.00000000E+000,6.06555000E-001
GRID,14,,-5.32624000E-002,0.00000000E+000,6.07269000E-001
GRID,15,,-4.56676000E-002,0.00000000E+000,6.07887000E-001
GRID,16,,-3.80657000E-002,0.00000000E+000,6.08410000E-001
GRID,17,,-3.04577000E-002,0.00000000E+000,6.08839000E-001
GRID,18,,-2.28451000E-002,0.00000000E+000,6.09172000E-001
GRID,19,,-1.52288000E-002,0.00000000E+000,6.09410000E-001
GRID,20,,-7.61023000E-003,0.00000000E+000,6.09552000E-001
$ ... 1661 like lines cut
CQUAD4,1,1,2,1,42,43
CQUAD4,2,1,3,2,43,44
CQUAD4,3,1,4,3,44,45
CQUAD4,4,1,5,4,45,46
CQUAD4,5,1,6,5,46,47
CQUAD4,6,1,7,6,47,48
CQUAD4,7,1,8,7,48,49
CQUAD4,8,1,9,8,49,50
CQUAD4,9,1,10,9,50,51
CQUAD4,10,1,11,10,51,52
CQUAD4,11,1,12,11,52,53
CQUAD4,12,1,13,12,53,54
CQUAD4,13,1,14,13,54,55
CQUAD4,14,1,15,14,55,56
CQUAD4,15,1,16,15,56,57
CQUAD4,16,1,17,16,57,58
CQUAD4,17,1,18,17,58,59
CQUAD4,18,1,19,18,59,60
CQUAD4,19,1,20,19,60,61
CQUAD4,20,1,21,20,61,62
$ ... 1580 like lines cut
SPC1,1,123456,1,2,3,4,5,6,7,8
SPC1,1,123456,9,10,11,12,13,14,15,16
SPC1,1,123456,17,18,19,20,21,22,23,24
SPC1,1,123456,25,26,27,28,29,30,31,32
SPC1,1,123456,33,34,35,36,37,38,39,40
SPC1,1,123456,41
ENDDATA
