ID MIDAS,EIGEN-09,PYRAMID_MODAL_MCT_MATCH
SOL 103
CEND
TITLE = MIDAS Eigen-09 replication (modal, MCT-matched)
ECHO = NONE
SUBCASE 1
  METHOD = 9
  SPC = 1
BEGIN BULK
PARAM,POST,-1
DEBUG,203,1
DEBUG,204,1
PARAM,LANCMETH,CHASE
EIGRL,9,,,6
$
$ Units: kip, in, sec
MAT1,1,2.95E4,,0.3,0.0
PBAR,100,1,13.5,712.0,22.5,1.22,0.0
PBAR,200,1,11.7,146.0,49.1,1.12,0.0
$
$ Nodes from MIDAS MCT
GRID,1,,0.,0.,727.5
GRID,2,,84.,0.,582.
GRID,3,,168.,0.,436.5
GRID,4,,252.,0.,291.
GRID,5,,336.,0.,145.5
GRID,6,,420.,0.,0.
GRID,7,,84.,84.,582.
GRID,8,,168.,168.,436.5
GRID,9,,252.,252.,291.
GRID,10,,336.,336.,145.5
GRID,11,,420.,420.,0.
GRID,12,,0.,84.,582.
GRID,13,,0.,168.,436.5
GRID,14,,0.,252.,291.
GRID,15,,0.,336.,145.5
GRID,16,,0.,420.,0.
GRID,17,,-84.,84.,582.
GRID,18,,-168.,168.,436.5
GRID,19,,-252.,252.,291.
GRID,20,,-336.,336.,145.5
$ ... 25 like lines cut
$
$ Elements from MIDAS MCT (*ELEMENT)
CBAR,1,100,2,7,84.000000,42.000000,0.000000
CBAR,2,100,3,8,168.000000,84.000000,0.000000
CBAR,3,100,4,9,252.000000,126.000000,0.000000
CBAR,4,100,5,10,336.000000,168.000000,0.000000
CBAR,5,100,7,12,42.000000,84.000000,0.000000
CBAR,6,100,8,13,84.000000,168.000000,0.000000
CBAR,7,100,9,14,126.000000,252.000000,0.000000
CBAR,8,100,10,15,168.000000,336.000000,0.000000
CBAR,9,100,12,17,-42.000000,84.000000,0.000000
CBAR,10,100,13,18,-84.000000,168.000000,0.000000
CBAR,11,100,14,19,-126.000000,252.000000,0.000000
CBAR,12,100,15,20,-168.000000,336.000000,0.000000
CBAR,13,100,17,22,-84.000000,42.000000,0.000000
CBAR,14,100,18,23,-168.000000,84.000000,0.000000
CBAR,15,100,19,24,-252.000000,126.000000,0.000000
CBAR,16,100,20,25,-336.000000,168.000000,0.000000
CBAR,17,100,22,27,-84.000000,-42.000000,0.000000
CBAR,18,100,23,28,-168.000000,-84.000000,0.000000
CBAR,19,100,24,29,-252.000000,-126.000000,0.000000
CBAR,20,100,25,30,-336.000000,-168.000000,0.000000
$ ... 84 like lines cut
$
SPC1,1,123456,6,11,16,21,26,31,36,41
$
$ MIDAS rigid link: DOF 110001 -> DX,DY,RZ
RBE2,3001,42,126,2,7,12,17,22,27,32,37
RBE2,3002,43,126,3,8,13,18,23,28,33,38
RBE2,3003,44,126,4,9,14,19,24,29,34,39
RBE2,3004,45,126,5,10,15,20,25,30,35,40
$
CONM2,420,42,0,5.07246E-2,0.,0.,0.
,0.,0.,0.,0.,0.,2.38609E+2
CONM2,430,43,0,2.02899E-1,0.,0.,0.
,0.,0.,0.,0.,0.,3.81774E+3
CONM2,440,44,0,4.56522E-1,0.,0.,0.
,0.,0.,0.,0.,0.,1.93273E+4
CONM2,450,45,0,8.11594E-1,0.,0.,0.
,0.,0.,0.,0.,0.,6.10838E+4
ENDDATA
