ID MIDAS,eigen08,CBAR
SOL 103
CEND
TITLE = MIDAS eigen08 CBAR modal conversion
ECHO = NONE
SUBCASE 1
  METHOD = 20
  SPC = 1
BEGIN BULK
PARAM,POST,-1
PARAM,LANCMETH,CHASE
DEBUG,203,1
DEBUG,204,1
EIGR,20,MGIV,,,1,5,Y
$
MAT1,1,2.79E+07,1.0730769E+07,3.0E-01
PBAR,100,1,1.07453E+00,6.65747E-01,6.6574E-01,1.33149E+00,0.0
$
GRID,1,,0.0E+00,0.0E+00,0.0E+00
GRID,2,,0.0E+00,1.725E+01,0.0E+00
GRID,3,,2.725E+01,0.0E+00,0.0E+00
GRID,4,,2.725E+01,1.725E+01,0.0E+00
GRID,5,,0.0E+00,0.0E+00,1.0E+01
GRID,6,,0.0E+00,1.725E+01,1.0E+01
GRID,7,,2.725E+01,0.0E+00,1.0E+01
GRID,8,,2.725E+01,1.725E+01,1.0E+01
GRID,9,,0.0E+00,0.0E+00,1.8625E+01
GRID,10,,0.0E+00,1.725E+01,1.8625E+01
GRID,11,,2.725E+01,0.0E+00,1.8625E+01
GRID,12,,2.725E+01,1.725E+01,1.8625E+01
GRID,13,,1.8625E+01,0.0E+00,1.8625E+01
GRID,14,,1.8625E+01,1.725E+01,1.8625E+01
GRID,15,,8.625E+00,0.0E+00,1.8625E+01
GRID,16,,8.625E+00,1.725E+01,1.8625E+01
GRID,17,,0.0E+00,8.625E+00,1.8625E+01
GRID,18,,2.725E+01,8.625E+00,1.8625E+01
$
CBAR,1,100,1,5,0.0E+00,1.0E+00,0.0E+00
CBAR,2,100,5,9,0.0E+00,1.0E+00,0.0E+00
CBAR,3,100,2,6,0.0E+00,1.0E+00,0.0E+00
CBAR,4,100,6,10,0.0E+00,1.0E+00,0.0E+00
CBAR,5,100,3,7,0.0E+00,1.0E+00,0.0E+00
CBAR,6,100,7,11,0.0E+00,1.0E+00,0.0E+00
CBAR,7,100,4,8,0.0E+00,1.0E+00,0.0E+00
CBAR,8,100,8,12,0.0E+00,1.0E+00,0.0E+00
CBAR,9,100,9,15,0.0E+00,0.0E+00,1.0E+00
CBAR,10,100,15,13,0.0E+00,0.0E+00,1.0E+00
CBAR,11,100,13,11,0.0E+00,0.0E+00,1.0E+00
CBAR,12,100,10,16,0.0E+00,0.0E+00,1.0E+00
CBAR,13,100,16,14,0.0E+00,0.0E+00,1.0E+00
CBAR,14,100,14,12,0.0E+00,0.0E+00,1.0E+00
CBAR,15,100,9,17,0.0E+00,0.0E+00,1.0E+00
CBAR,16,100,17,10,0.0E+00,0.0E+00,1.0E+00
CBAR,17,100,11,18,0.0E+00,0.0E+00,1.0E+00
CBAR,18,100,18,12,0.0E+00,0.0E+00,1.0E+00
$
SPC,1,1,1,0.
SPC,1,1,2,0.
SPC,1,1,3,0.
SPC,1,1,4,0.
SPC,1,1,5,0.
SPC,1,1,6,0.
SPC,1,2,1,0.
SPC,1,2,2,0.
SPC,1,2,3,0.
SPC,1,2,4,0.
SPC,1,2,5,0.
SPC,1,2,6,0.
SPC,1,3,1,0.
SPC,1,3,2,0.
SPC,1,3,3,0.
SPC,1,3,4,0.
SPC,1,3,5,0.
SPC,1,3,6,0.
SPC,1,4,1,0.
SPC,1,4,2,0.
$ ... 4 like lines cut
CONM2,910001,5,0,8.94223E-03
CONM2,910002,6,0,8.94223E-03
CONM2,910003,7,0,8.94223E-03
CONM2,910004,8,0,8.94223E-03
CONM2,910005,13,0,8.94223E-03
CONM2,910006,14,0,8.94223E-03
CONM2,910007,15,0,8.94223E-03
CONM2,910008,16,0,8.94223E-03
CONM2,910009,17,0,8.94223E-03
CONM2,910010,18,0,8.94223E-03
CONM2,910011,9,0,2.53816E-02
CONM2,910012,10,0,2.53816E-02
CONM2,910013,11,0,2.53816E-02
CONM2,910014,12,0,2.53816E-02
ENDDATA
