ID PLATE,CANTILEVER,MITC4
SOL 101
CEND
TITLE = CANTILEVER PLATE CQUAD4 MITC4 MESH 40X20
ECHO = NONE
DISPLACEMENT(PRINT)=ALL
SPCFORCE(PRINT)=ALL
STRESS(PRINT)=ALL
SUBCASE 1
  LOAD = 10
  SPC = 1
BEGIN BULK
$
$ !--- RCM BANDED ADD-ON --- begin!
PARAM,POST,-1
PARAM,AUTOSPC,YES
PARAM,QUAD4TYP,MITC4
$ !--- RCM BANDED ADD-ON --- end!
MAT1,1,2.100000E+11,,3.000000E-01,7.850000E+03
PSHELL,1,1,1.000000E-02,1,1.0,1,0.833333
$
GRID,1,,0.000000E+00,0.000000E+00,0.0
GRID,2,,5.000000E-02,0.000000E+00,0.0
GRID,3,,1.000000E-01,0.000000E+00,0.0
GRID,4,,1.500000E-01,0.000000E+00,0.0
GRID,5,,2.000000E-01,0.000000E+00,0.0
GRID,6,,2.500000E-01,0.000000E+00,0.0
GRID,7,,3.000000E-01,0.000000E+00,0.0
GRID,8,,3.500000E-01,0.000000E+00,0.0
GRID,9,,4.000000E-01,0.000000E+00,0.0
GRID,10,,4.500000E-01,0.000000E+00,0.0
GRID,11,,5.000000E-01,0.000000E+00,0.0
GRID,12,,5.500000E-01,0.000000E+00,0.0
GRID,13,,6.000000E-01,0.000000E+00,0.0
GRID,14,,6.500000E-01,0.000000E+00,0.0
GRID,15,,7.000000E-01,0.000000E+00,0.0
GRID,16,,7.500000E-01,0.000000E+00,0.0
GRID,17,,8.000000E-01,0.000000E+00,0.0
GRID,18,,8.500000E-01,0.000000E+00,0.0
GRID,19,,9.000000E-01,0.000000E+00,0.0
GRID,20,,9.500000E-01,0.000000E+00,0.0
$ ... 841 like lines cut
$
CQUAD4,1,1,1,2,43,42
CQUAD4,2,1,2,3,44,43
CQUAD4,3,1,3,4,45,44
CQUAD4,4,1,4,5,46,45
CQUAD4,5,1,5,6,47,46
CQUAD4,6,1,6,7,48,47
CQUAD4,7,1,7,8,49,48
CQUAD4,8,1,8,9,50,49
CQUAD4,9,1,9,10,51,50
CQUAD4,10,1,10,11,52,51
CQUAD4,11,1,11,12,53,52
CQUAD4,12,1,12,13,54,53
CQUAD4,13,1,13,14,55,54
CQUAD4,14,1,14,15,56,55
CQUAD4,15,1,15,16,57,56
CQUAD4,16,1,16,17,58,57
CQUAD4,17,1,17,18,59,58
CQUAD4,18,1,18,19,60,59
CQUAD4,19,1,19,20,61,60
CQUAD4,20,1,20,21,62,61
$ ... 780 like lines cut
$
SPC1,1,123456,1
SPC1,1,123456,42
SPC1,1,123456,83
SPC1,1,123456,124
SPC1,1,123456,165
SPC1,1,123456,206
SPC1,1,123456,247
SPC1,1,123456,288
SPC1,1,123456,329
SPC1,1,123456,370
SPC1,1,123456,411
SPC1,1,123456,452
SPC1,1,123456,493
SPC1,1,123456,534
SPC1,1,123456,575
SPC1,1,123456,616
SPC1,1,123456,657
SPC1,1,123456,698
SPC1,1,123456,739
SPC1,1,123456,780
SPC1,1,123456,821
$
FORCE,10,41,,1.0,0.0,0.0,-4.761905E+03
FORCE,10,82,,1.0,0.0,0.0,-4.761905E+03
FORCE,10,123,,1.0,0.0,0.0,-4.761905E+03
FORCE,10,164,,1.0,0.0,0.0,-4.761905E+03
FORCE,10,205,,1.0,0.0,0.0,-4.761905E+03
FORCE,10,246,,1.0,0.0,0.0,-4.761905E+03
FORCE,10,287,,1.0,0.0,0.0,-4.761905E+03
FORCE,10,328,,1.0,0.0,0.0,-4.761905E+03
FORCE,10,369,,1.0,0.0,0.0,-4.761905E+03
FORCE,10,410,,1.0,0.0,0.0,-4.761905E+03
FORCE,10,451,,1.0,0.0,0.0,-4.761905E+03
FORCE,10,492,,1.0,0.0,0.0,-4.761905E+03
FORCE,10,533,,1.0,0.0,0.0,-4.761905E+03
FORCE,10,574,,1.0,0.0,0.0,-4.761905E+03
FORCE,10,615,,1.0,0.0,0.0,-4.761905E+03
FORCE,10,656,,1.0,0.0,0.0,-4.761905E+03
FORCE,10,697,,1.0,0.0,0.0,-4.761905E+03
FORCE,10,738,,1.0,0.0,0.0,-4.761905E+03
FORCE,10,779,,1.0,0.0,0.0,-4.761905E+03
FORCE,10,820,,1.0,0.0,0.0,-4.761905E+03
FORCE,10,861,,1.0,0.0,0.0,-4.761905E+03
ENDDATA
