ID MIDAS,STATIC_24,CQUAD4_MOREMESH
SOL 101
CEND
TITLE = MIDAS STATIC-24 MOREMESH (MCT->MYSTRAN CQUAD4)
ECHO = NONE
DISPLACEMENT(PRINT)=ALL
SPCFORCE(PRINT)=ALL
STRESS(PRINT)=ALL
SUBCASE 1
  LOAD = 10
  SPC = 1
BEGIN BULK
$ Units from MCT: lbf, in
PARAM,POST,-1
PARAM,WTMASS,1.0
MAT1,1,6.825000E+07,,3.000000E-01
PSHELL,1,1,4.000000E-02
$
GRID,1,,0.000000E+00,3.090170E+00,9.510560E+00
GRID,2,,1.507155E-01,3.075325E+00,9.510560E+00
GRID,3,,3.014310E-01,3.060480E+00,9.510560E+00
GRID,4,,4.521465E-01,3.045635E+00,9.510560E+00
GRID,5,,6.028620E-01,3.030790E+00,9.510560E+00
GRID,6,,7.477865E-01,2.986827E+00,9.510560E+00
GRID,7,,8.927110E-01,2.942865E+00,9.510560E+00
GRID,8,,1.037635E+00,2.898903E+00,9.510560E+00
GRID,9,,1.182560E+00,2.854940E+00,9.510560E+00
GRID,10,,1.316123E+00,2.783550E+00,9.510560E+00
GRID,11,,1.449685E+00,2.712160E+00,9.510560E+00
GRID,12,,1.583247E+00,2.640770E+00,9.510560E+00
GRID,13,,1.716810E+00,2.569380E+00,9.510560E+00
GRID,14,,1.833878E+00,2.473305E+00,9.510560E+00
GRID,15,,1.950945E+00,2.377230E+00,9.510560E+00
GRID,16,,2.068013E+00,2.281155E+00,9.510560E+00
GRID,17,,2.185080E+00,2.185080E+00,9.510560E+00
GRID,18,,2.281155E+00,2.068013E+00,9.510560E+00
GRID,19,,2.377230E+00,1.950945E+00,9.510560E+00
GRID,20,,2.473305E+00,1.833878E+00,9.510560E+00
$ ... 1069 like lines cut
$
CQUAD4,1,1,1089,1088,1086,1087
CQUAD4,2,1,1069,1068,1058,1059
CQUAD4,3,1,1017,1016,998,999
CQUAD4,4,1,933,932,906,907
CQUAD4,5,1,817,816,782,783
CQUAD4,6,1,669,668,626,627
CQUAD4,7,1,489,488,438,439
CQUAD4,8,1,277,276,218,219
CQUAD4,9,1,1073,1064,1063,1072
CQUAD4,10,1,1065,1060,1054,1055
CQUAD4,11,1,1013,1012,994,995
CQUAD4,12,1,929,928,902,903
CQUAD4,13,1,813,812,778,779
CQUAD4,14,1,665,664,622,623
CQUAD4,15,1,485,484,434,435
CQUAD4,16,1,273,272,214,215
CQUAD4,17,1,1025,1008,1007,1024
CQUAD4,18,1,1021,1004,1003,1020
CQUAD4,19,1,1009,1000,990,991
CQUAD4,20,1,925,924,898,899
$ ... 1004 like lines cut
$
SPC,1,833,3,0.0
SPC,1,1,156,0.0
SPC,1,37,156,0.0
SPC,1,41,156,0.0
SPC,1,45,156,0.0
SPC,1,49,156,0.0
SPC,1,53,156,0.0
SPC,1,57,156,0.0
SPC,1,61,156,0.0
SPC,1,65,156,0.0
SPC,1,33,246,0.0
SPC,1,277,246,0.0
SPC,1,489,246,0.0
SPC,1,669,246,0.0
SPC,1,817,246,0.0
SPC,1,933,246,0.0
SPC,1,1017,246,0.0
SPC,1,1069,246,0.0
SPC,1,1089,246,0.0
$
FORCE,10,1089,,1.000000E+00,1.000000E+00,0.000000E+00,0.000000E+00
FORCE,10,65,,1.000000E+00,0.000000E+00,-1.000000E+00,0.000000E+00
ENDDATA
